@<TRIPOS>MOLECULE
10393
 30 33 0 0 0
SMALL
GASTEIGER

@<TRIPOS>ATOM
      1 O          -7.5000   -0.1340    0.0000 O.2     1  UNL1       -0.2730
      2 C          -7.0000   -1.0000    0.0000 C.2     1  UNL1        0.2452
      3 N          -7.5000   -1.8660    0.0000 N.am    1  UNL1       -0.1792
      4 C          -8.5000   -1.8660    0.0000 C.ar    1  UNL1        0.0734
      5 C          -9.0000   -2.7321    0.0000 C.ar    1  UNL1        0.0166
      6 C         -10.0000   -2.7321    0.0000 C.ar    1  UNL1        0.0013
      7 C         -10.5000   -1.8660    0.0000 C.ar    1  UNL1        0.0001
      8 C         -10.0000   -1.0000    0.0000 C.ar    1  UNL1        0.0013
      9 C          -9.0000   -1.0000    0.0000 C.ar    1  UNL1        0.0166
     10 C          -6.0000   -1.0000    0.0000 C.3     1  UNL1        0.0820
     11 C          -5.5000   -0.1340    0.0000 C.3     1  UNL1        0.0307
     12 C          -4.5000   -0.1340    0.0000 C.3     1  UNL1        0.0926
     13 N          -4.0000   -1.0000    0.0000 N.pl3   1  UNL1       -0.2932
     14 C          -3.0000   -1.0000    0.0000 C.ar    1  UNL1        0.1318
     15 C          -2.5000   -0.1340    0.0000 C.ar    1  UNL1        0.0357
     16 C          -1.5000   -0.1340    0.0000 C.ar    1  UNL1        0.0244
     17 C          -1.0000   -1.0000    0.0000 C.ar    1  UNL1        0.1414
     18 S           0.0000   -1.0000    0.0000 S.O2    1  UNL1        0.0648
     19 O          -0.0000   -2.0000    0.0000 O.2     1  UNL1       -0.1527
     20 O           1.0000   -1.0000    0.0000 O.2     1  UNL1       -0.1527
     21 N           0.0000   -0.0000    0.0000 N.3     1  UNL1       -0.1555
     22 C          -0.8660    0.5000    0.0000 C.3     1  UNL1        0.0958
     23 C          -0.8660    1.5000    0.0000 C.3     1  UNL1        0.0192
     24 C           0.0000    2.0000    0.0000 C.3     1  UNL1        0.0030
     25 C           0.8660    1.5000    0.0000 C.3     1  UNL1        0.0192
     26 C           0.8660    0.5000    0.0000 C.3     1  UNL1        0.0958
     27 C          -1.5000   -1.8660    0.0000 C.ar    1  UNL1        0.1201
     28 N          -2.5000   -1.8660    0.0000 N.ar    1  UNL1       -0.2278
     29 C          -4.5000   -1.8660    0.0000 C.3     1  UNL1        0.0926
     30 C          -5.5000   -1.8660    0.0000 C.3     1  UNL1        0.0307
@<TRIPOS>BOND
     1     1     2    2
     2     2     3   am
     3     3     4    1
     4     4     5   ar
     5     5     6   ar
     6     6     7   ar
     7     7     8   ar
     8     8     9   ar
     9     4     9   ar
    10     2    10    1
    11    10    11    1
    12    11    12    1
    13    12    13    1
    14    13    14    1
    15    14    15   ar
    16    15    16   ar
    17    16    17   ar
    18    17    18    1
    19    18    19    2
    20    18    20    2
    21    18    21    1
    22    21    22    1
    23    22    23    1
    24    23    24    1
    25    24    25    1
    26    25    26    1
    27    21    26    1
    28    17    27   ar
    29    27    28   ar
    30    14    28   ar
    31    13    29    1
    32    29    30    1
    33    10    30    1
