@<TRIPOS>MOLECULE
14545
 29 32 0 0 0
SMALL
GASTEIGER

@<TRIPOS>ATOM
      1 O          -3.0000   -1.0000    0.0000 O.2     1  UNL1       -0.2714
      2 C          -2.5000   -1.8660    0.0000 C.2     1  UNL1        0.2633
      3 N          -3.0000   -2.7321    0.0000 N.am    1  UNL1       -0.2057
      4 C          -4.0000   -2.7321    0.0000 C.3     1  UNL1        0.0954
      5 C          -4.5000   -3.5981    0.0000 C.3     1  UNL1        0.0217
      6 C          -5.5000   -3.5981    0.0000 C.3     1  UNL1        0.0018
      7 C          -6.0000   -2.7321    0.0000 C.3     1  UNL1        0.0001
      8 C          -5.5000   -1.8660    0.0000 C.3     1  UNL1        0.0018
      9 C          -4.5000   -1.8660    0.0000 C.3     1  UNL1        0.0217
     10 C          -1.5000   -1.8660    0.0000 C.3     1  UNL1        0.1973
     11 N          -1.0000   -1.0000    0.0000 N.3     1  UNL1       -0.0653
     12 S           0.0000   -1.0000    0.0000 S.O2    1  UNL1        0.0791
     13 O           0.0000   -2.0000    0.0000 O.2     1  UNL1       -0.1515
     14 O           1.0000   -1.0000    0.0000 O.2     1  UNL1       -0.1515
     15 C           0.0000   -0.0000    0.0000 C.ar    1  UNL1        0.1433
     16 C          -0.8660    0.5000    0.0000 C.ar    1  UNL1        0.0216
     17 C          -0.8660    1.5000    0.0000 C.ar    1  UNL1        0.0030
     18 C          -0.0000    2.0000    0.0000 C.ar    1  UNL1        0.0214
     19 C           0.8660    1.5000    0.0000 C.ar    1  UNL1        0.1102
     20 N           1.8171    1.8090    0.0000 N.ar    1  UNL1       -0.1901
     21 S           2.4049    1.0000    0.0000 S.2     1  UNL1        0.1165
     22 N           1.8171    0.1910    0.0000 N.ar    1  UNL1       -0.1888
     23 C           0.8660    0.5000    0.0000 C.ar    1  UNL1        0.1274
     24 C          -1.0000   -2.7321    0.0000 C.ar    1  UNL1        0.0041
     25 C           0.0000   -2.7321    0.0000 C.ar    1  UNL1       -0.0024
     26 C           0.5000   -3.5981    0.0000 C.ar    1  UNL1       -0.0003
     27 C          -0.0000   -4.4641    0.0000 C.ar    1  UNL1       -0.0000
     28 C          -1.0000   -4.4641    0.0000 C.ar    1  UNL1       -0.0003
     29 C          -1.5000   -3.5981    0.0000 C.ar    1  UNL1       -0.0024
@<TRIPOS>BOND
     1     1     2    2
     2     2     3   am
     3     3     4    1
     4     4     5    1
     5     5     6    1
     6     6     7    1
     7     7     8    1
     8     8     9    1
     9     4     9    1
    10     2    10    1
    11    10    11    1
    12    11    12    1
    13    12    13    2
    14    12    14    2
    15    12    15    1
    16    15    16   ar
    17    16    17   ar
    18    17    18   ar
    19    18    19   ar
    20    19    20   ar
    21    20    21   ar
    22    21    22   ar
    23    22    23   ar
    24    15    23   ar
    25    19    23   ar
    26    10    24    1
    27    24    25   ar
    28    25    26   ar
    29    26    27   ar
    30    27    28   ar
    31    28    29   ar
    32    24    29   ar
