@<TRIPOS>MOLECULE
16397
 29 32 0 0 0
SMALL
GASTEIGER

@<TRIPOS>ATOM
      1 O           4.0805   -3.9700    0.0000 O.2     1  UNL1       -0.2730
      2 C           3.0917   -3.8209    0.0000 C.2     1  UNL1        0.2465
      3 C           2.5283   -4.6472    0.0000 C.3     1  UNL1        0.0991
      4 C           1.5311   -4.7219    0.0000 C.3     1  UNL1        0.0719
      5 S           0.8510   -3.9888    0.0000 S.3     1  UNL1       -0.1118
      6 C           1.0000   -3.0000    0.0000 C.ar    1  UNL1        0.0406
      7 C           0.1340   -2.5000    0.0000 C.ar    1  UNL1        0.0088
      8 C           0.1340   -1.5000    0.0000 C.ar    1  UNL1        0.0205
      9 C           1.0000   -1.0000    0.0000 C.ar    1  UNL1        0.1249
     10 S           1.0000   -0.0000    0.0000 S.O2    1  UNL1        0.0769
     11 O           2.0000   -0.0000    0.0000 O.2     1  UNL1       -0.1516
     12 O           1.0000    1.0000    0.0000 O.2     1  UNL1       -0.1516
     13 N           0.0000    0.0000    0.0000 N.3     1  UNL1       -0.0777
     14 C          -0.5000    0.8660    0.0000 C.3     1  UNL1        0.1169
     15 C          -1.5000    0.8660    0.0000 C.3     1  UNL1        0.0381
     16 C          -2.0000    1.7321    0.0000 C.3     1  UNL1        0.0739
     17 N          -3.0000    1.7321    0.0000 N.3     1  UNL1       -0.2686
     18 C          -3.5000    0.8660    0.0000 C.3     1  UNL1        0.0771
     19 C          -4.5000    0.8660    0.0000 C.3     1  UNL1        0.0434
     20 C          -5.0000    1.7321    0.0000 C.ar    1  UNL1       -0.0234
     21 C          -6.0000    1.7321    0.0000 C.ar    1  UNL1       -0.0045
     22 C          -6.5000    2.5981    0.0000 C.ar    1  UNL1       -0.0003
     23 C          -6.0000    3.4641    0.0000 C.ar    1  UNL1       -0.0003
     24 C          -5.0000    3.4641    0.0000 C.ar    1  UNL1       -0.0032
     25 C          -4.5000    2.5981    0.0000 C.ar    1  UNL1       -0.0101
     26 C          -3.5000    2.5981    0.0000 C.3     1  UNL1        0.0988
     27 C           1.8660   -1.5000    0.0000 C.ar    1  UNL1        0.0370
     28 C           1.8660   -2.5000    0.0000 C.ar    1  UNL1        0.0803
     29 N           2.7969   -2.8653    0.0000 N.am    1  UNL1       -0.1786
@<TRIPOS>BOND
     1     1     2    2
     2     2     3    1
     3     3     4    1
     4     4     5    1
     5     5     6    1
     6     6     7   ar
     7     7     8   ar
     8     8     9   ar
     9     9    10    1
    10    10    11    2
    11    10    12    2
    12    10    13    1
    13    13    14    1
    14    14    15    1
    15    15    16    1
    16    16    17    1
    17    17    18    1
    18    18    19    1
    19    19    20    1
    20    20    21   ar
    21    21    22   ar
    22    22    23   ar
    23    23    24   ar
    24    24    25   ar
    25    20    25   ar
    26    25    26    1
    27    17    26    1
    28     9    27   ar
    29    27    28   ar
    30     6    28   ar
    31    28    29    1
    32     2    29   am
