@<TRIPOS>MOLECULE
6217
 30 33 0 0 0
SMALL
GASTEIGER

@<TRIPOS>ATOM
      1 O          -6.0000   -1.0000    0.0000 O.2     1  UNL1       -0.2688
      2 C          -5.5000   -1.8660    0.0000 C.2     1  UNL1        0.2927
      3 C          -4.5000   -1.8660    0.0000 C.3     1  UNL1        0.2949
      4 O          -4.0000   -2.7321    0.0000 O.3     1  UNL1       -0.4352
      5 C          -3.0000   -2.7321    0.0000 C.2     1  UNL1        0.3417
      6 O          -2.5000   -3.5981    0.0000 O.2     1  UNL1       -0.2449
      7 C          -2.5000   -1.8660    0.0000 C.ar    1  UNL1        0.0770
      8 C          -3.0000   -1.0000    0.0000 C.ar    1  UNL1        0.0065
      9 C          -2.5000   -0.1340    0.0000 C.ar    1  UNL1        0.0016
     10 C          -1.5000   -0.1340    0.0000 C.ar    1  UNL1        0.0202
     11 C          -1.0000   -1.0000    0.0000 C.ar    1  UNL1        0.1256
     12 S           0.0000   -1.0000    0.0000 S.O2    1  UNL1        0.0766
     13 O           0.0000   -2.0000    0.0000 O.2     1  UNL1       -0.1497
     14 O           1.0000   -1.0000    0.0000 O.2     1  UNL1       -0.1497
     15 N           0.0000    0.0000    0.0000 N.pl3   1  UNL1       -0.1906
     16 C          -0.8090    0.5878    0.0000 C.3     1  UNL1        0.1205
     17 C          -0.5000    1.5388    0.0000 C.3     1  UNL1        0.0510
     18 C           0.5000    1.5388    0.0000 C.ar    1  UNL1       -0.0055
     19 C           1.1691    2.2820    0.0000 C.ar    1  UNL1       -0.0029
     20 C           2.1473    2.0741    0.0000 C.ar    1  UNL1       -0.0002
     21 C           2.4563    1.1230    0.0000 C.ar    1  UNL1        0.0013
     22 C           1.7872    0.3799    0.0000 C.ar    1  UNL1        0.0158
     23 C           0.8090    0.5878    0.0000 C.ar    1  UNL1        0.0649
     24 C          -1.5000   -1.8660    0.0000 C.ar    1  UNL1        0.0266
     25 N          -6.0000   -2.7321    0.0000 N.am    1  UNL1       -0.1392
     26 C          -7.0000   -2.7321    0.0000 C.ar    1  UNL1        0.2525
     27 C          -7.5878   -3.5411    0.0000 C.ar    1  UNL1        0.0820
     28 C          -8.5388   -3.2321    0.0000 C.ar    1  UNL1        0.1454
     29 N          -8.5388   -2.2321    0.0000 N.ar    1  UNL1       -0.0737
     30 O          -7.5878   -1.9230    0.0000 O.2     1  UNL1       -0.3363
@<TRIPOS>BOND
     1     1     2    2
     2     2     3    1
     3     3     4    1
     4     4     5    1
     5     5     6    2
     6     5     7    1
     7     7     8   ar
     8     8     9   ar
     9     9    10   ar
    10    10    11   ar
    11    11    12    1
    12    12    13    2
    13    12    14    2
    14    12    15    1
    15    15    16    1
    16    16    17    1
    17    17    18    1
    18    18    19   ar
    19    19    20   ar
    20    20    21   ar
    21    21    22   ar
    22    22    23   ar
    23    15    23    1
    24    18    23   ar
    25    11    24   ar
    26     7    24   ar
    27     2    25   am
    28    25    26    1
    29    26    27   ar
    30    27    28   ar
    31    28    29   ar
    32    29    30   ar
    33    26    30   ar
