@<TRIPOS>MOLECULE
6795
 32 35 0 0 0
SMALL
GASTEIGER

@<TRIPOS>ATOM
      1 O           3.4071    2.0878    0.0000 O.2     1  UNL1       -0.2680
      2 C           3.4071    3.0878    0.0000 C.2     1  UNL1        0.2702
      3 N           4.2731    3.5878    0.0000 N.am    1  UNL1       -0.1754
      4 C           5.1391    3.0878    0.0000 C.ar    1  UNL1        0.0737
      5 C           6.0052    3.5878    0.0000 C.ar    1  UNL1        0.0166
      6 C           6.8712    3.0878    0.0000 C.ar    1  UNL1        0.0013
      7 C           6.8712    2.0878    0.0000 C.ar    1  UNL1        0.0001
      8 C           6.0052    1.5878    0.0000 C.ar    1  UNL1        0.0013
      9 C           5.1391    2.0878    0.0000 C.ar    1  UNL1        0.0166
     10 C           2.5411    3.5878    0.0000 C.ar    1  UNL1        0.0707
     11 C           2.5411    4.5878    0.0000 C.ar    1  UNL1        0.0059
     12 C           1.6750    5.0878    0.0000 C.ar    1  UNL1        0.0002
     13 C           0.8090    4.5878    0.0000 C.ar    1  UNL1        0.0013
     14 C           0.8090    3.5878    0.0000 C.ar    1  UNL1        0.0167
     15 C           1.6750    3.0878    0.0000 C.ar    1  UNL1        0.0778
     16 N           1.6750    2.0878    0.0000 N.am    1  UNL1       -0.1790
     17 C           0.8090    1.5878    0.0000 C.2     1  UNL1        0.2473
     18 O          -0.0570    2.0878    0.0000 O.2     1  UNL1       -0.2729
     19 C           0.8090    0.5878    0.0000 C.3     1  UNL1        0.1074
     20 C           1.6180   -0.0000    0.0000 C.3     1  UNL1        0.0961
     21 C           1.3090   -0.9511    0.0000 C.2     1  UNL1        0.2262
     22 O           1.8968   -1.7601    0.0000 O.2     1  UNL1       -0.2749
     23 N           0.3090   -0.9511    0.0000 N.am    1  UNL1       -0.2787
     24 C          -0.2788   -1.7601    0.0000 C.3     1  UNL1        0.0981
     25 C          -1.2733   -1.6555    0.0000 C.3     1  UNL1        0.0478
     26 C          -1.6800   -0.7420    0.0000 C.ar    1  UNL1       -0.0205
     27 C          -2.6745   -0.6375    0.0000 C.ar    1  UNL1       -0.0042
     28 C          -3.0813    0.2761    0.0000 C.ar    1  UNL1       -0.0003
     29 C          -2.4935    1.0851    0.0000 C.ar    1  UNL1       -0.0000
     30 C          -1.4990    0.9806    0.0000 C.ar    1  UNL1       -0.0003
     31 C          -1.0922    0.0670    0.0000 C.ar    1  UNL1       -0.0042
     32 C           0.0000   -0.0000    0.0000 C.3     1  UNL1        0.1030
@<TRIPOS>BOND
     1     1     2    2
     2     2     3   am
     3     3     4    1
     4     4     5   ar
     5     5     6   ar
     6     6     7   ar
     7     7     8   ar
     8     8     9   ar
     9     4     9   ar
    10     2    10    1
    11    10    11   ar
    12    11    12   ar
    13    12    13   ar
    14    13    14   ar
    15    14    15   ar
    16    10    15   ar
    17    15    16    1
    18    16    17   am
    19    17    18    2
    20    17    19    1
    21    19    20    1
    22    20    21    1
    23    21    22    2
    24    21    23   am
    25    23    24    1
    26    24    25    1
    27    25    26    1
    28    26    27   ar
    29    27    28   ar
    30    28    29   ar
    31    29    30   ar
    32    30    31   ar
    33    26    31   ar
    34    23    32    1
    35    19    32    1
