@<TRIPOS>MOLECULE
STB_C010_075
 24 27 0 0 0
SMALL
GASTEIGER

@<TRIPOS>ATOM
      1 C           4.3301   -1.5000    0.0000 C.ar    1  UNL1       -0.0000
      2 C           3.4641   -2.0000    0.0000 C.ar    1  UNL1       -0.0003
      3 C           2.5981   -1.5000    0.0000 C.ar    1  UNL1       -0.0023
      4 C           2.5981   -0.5000    0.0000 C.ar    1  UNL1        0.0015
      5 C           3.4641   -0.0000    0.0000 C.ar    1  UNL1       -0.0023
      6 C           4.3301   -0.5000    0.0000 C.ar    1  UNL1       -0.0003
      7 C           1.7321   -0.0000    0.0000 C.3     1  UNL1        0.1385
      8 N           1.7321    1.0000    0.0000 N.pl3   1  UNL1       -0.2130
      9 C           0.8660    1.5000    0.0000 C.ar    1  UNL1        0.1481
     10 N           0.0000    1.0000    0.0000 N.ar    1  UNL1       -0.2277
     11 C          -0.8660    1.5000    0.0000 C.ar    1  UNL1        0.1004
     12 C          -0.8660    2.5000    0.0000 C.ar    1  UNL1        0.0208
     13 C           0.0000    3.0000    0.0000 C.ar    1  UNL1        0.0045
     14 C           0.8660    2.5000    0.0000 C.ar    1  UNL1        0.0358
     15 C           0.8660   -0.5000    0.0000 C.ar    1  UNL1        0.0030
     16 C           0.8660   -1.5000    0.0000 C.ar    1  UNL1       -0.0022
     17 C           0.0000   -2.0000    0.0000 C.ar    1  UNL1        0.0012
     18 C          -0.8660   -1.5000    0.0000 C.ar    1  UNL1        0.0177
     19 C          -1.7321   -2.0000    0.0000 C.ar    1  UNL1        0.0031
     20 C          -2.5981   -1.5000    0.0000 C.ar    1  UNL1        0.0207
     21 C          -2.5981   -0.5000    0.0000 C.ar    1  UNL1        0.0988
     22 N          -1.7321   -0.0000    0.0000 N.ar    1  UNL1       -0.2438
     23 C          -0.8660   -0.5000    0.0000 C.ar    1  UNL1        0.0811
     24 C          -0.0000   -0.0000    0.0000 C.ar    1  UNL1        0.0168
@<TRIPOS>BOND
     1     1     2   ar
     2     2     3   ar
     3     3     4   ar
     4     4     5   ar
     5     5     6   ar
     6     1     6   ar
     7     4     7    1
     8     7     8    1
     9     8     9    1
    10     9    10   ar
    11    10    11   ar
    12    11    12   ar
    13    12    13   ar
    14    13    14   ar
    15     9    14   ar
    16     7    15    1
    17    15    16   ar
    18    16    17   ar
    19    17    18   ar
    20    18    19   ar
    21    19    20   ar
    22    20    21   ar
    23    21    22   ar
    24    22    23   ar
    25    18    23   ar
    26    23    24   ar
    27    15    24   ar
